Circuit: * D:\nacho\Generador de ruido\Simus\Draft1.asc

Warning: Multiple definitions of model "bc558c" Type: BJT
Warning: Multiple definitions of model "bc548c" Type: BJT
c3: Increased Cpar to 4.7e-10
Direct Newton iteration for .op point succeeded.

Date: Sat Sep 27 16:51:09 2025
Total elapsed time: 0.075 seconds.

tnom = 27
temp = 27
method = modified trap
totiter = 2442
traniter = 2432
tranpoints = 1173
accept = 1141
rejected = 32
matrix size = 17
fillins = 13
solver = Normal
Avg thread counts: 1.2/1.4/1.3/1.2
Matrix Compiler1: 1.74 KB object code size  0.4/0.4/[0.2]
Matrix Compiler2: 1.59 KB object code size  0.2/0.4/[0.2]

