Circuit: * C:\Users\nacho\AppData\Local\LTspice\lib\Draft1.asc

.OP point found by inspection.

Date: Thu Jan 16 19:04:26 2025
Total elapsed time: 0.034 seconds.

tnom = 27
temp = 27
method = trap
totiter = 0
traniter = 0
tranpoints = 0
accept = 0
rejected = 0
matrix size = 1
fillins = 0
solver = Normal
Avg thread counts: 6.0/0.0/0.0/1.2
Matrix Compiler1: off
Matrix Compiler2:       4 opcodes
